Version 4
SHEET 1 880 680
WIRE 672 16 624 16
WIRE 672 32 672 16
WIRE 784 32 672 32
WIRE -80 48 -176 48
WIRE 672 48 672 32
WIRE 784 48 784 32
WIRE 608 128 608 112
WIRE 672 128 608 128
WIRE 784 128 672 128
WIRE -96 176 -176 176
WIRE -80 304 -176 304
FLAG -176 128 0
FLAG -176 256 0
FLAG -176 384 0
FLAG -80 48 1
FLAG -96 176 2
FLAG -80 304 3
FLAG 144 64 1
FLAG 144 176 2
FLAG 144 272 3
FLAG 304 288 0
FLAG 304 192 0
FLAG 304 80 0
FLAG 608 128 0
FLAG 544 16 p
FLAG 304 48 p
FLAG 304 160 p
FLAG 304 256 p
SYMBOL voltage -176 32 R0
SYMATTR InstName V1
SYMATTR Value 1.6
SYMBOL voltage -176 160 R0
SYMATTR InstName V2
SYMATTR Value 3.1
SYMBOL voltage -176 288 R0
SYMATTR InstName V3
SYMATTR Value 5.1
SYMBOL module 224 64 R0
SYMATTR InstName X1
SYMBOL module 224 176 R0
SYMATTR InstName X2
SYMBOL module 224 272 R0
SYMATTR InstName X3
SYMBOL voltage 672 32 R0
WINDOW 123 0 0 Left 0
WINDOW 39 24 124 Left 2
SYMATTR InstName V4
SYMATTR Value 0
SYMBOL voltage 528 16 R270
WINDOW 0 32 56 VTop 2
WINDOW 3 -32 56 VBottom 2
SYMATTR InstName V5
SYMATTR Value 0
SYMBOL res 768 32 R0
SYMATTR InstName R1
SYMATTR Value 10k
TEXT 544 416 Left 2 !.dc V4 0 25 0.1
