Version 4
SHEET 1 1220 680
WIRE 928 -192 832 -192
WIRE 752 -160 752 -176
WIRE 832 -160 832 -192
WIRE 352 -112 256 -112
WIRE 928 -80 928 -192
WIRE 1040 -80 928 -80
WIRE 928 -48 928 -80
WIRE 1040 0 1040 -80
WIRE 336 16 256 16
WIRE 928 80 928 32
WIRE 1040 80 928 80
WIRE 352 144 256 144
WIRE -320 240 -320 128
WIRE -144 256 -144 128
WIRE 16 256 16 128
WIRE -320 400 -320 272
WIRE -144 400 -144 288
WIRE 16 400 16 288
FLAG 928 80 0
FLAG 16 432 0
FLAG -240 112 3_v
FLAG -240 144 3_v
FLAG -240 416 3_v
FLAG -240 448 3_v
FLAG -416 416 3_v
FLAG -80 80 1_v
FLAG -80 112 1_v
FLAG -80 144 1_v
FLAG -80 304 1_v
FLAG -80 448 1_v
FLAG -416 224 2_v
FLAG -416 256 2_v
FLAG -80 272 2_v
FLAG -416 80 2_v
FLAG -416 448 2_v
FLAG -416 288 0
FLAG -240 80 0
FLAG -416 384 0
FLAG -240 304 0
FLAG -416 112 0
FLAG -416 144 0
FLAG -80 416 0
FLAG -80 384 0
FLAG 752 -176 p
FLAG 16 96 p
FLAG -144 96 p
FLAG -320 432 0
FLAG -144 432 0
FLAG -320 96 p
FLAG -80 240 0
FLAG -240 384 1_V
FLAG -240 240 1_V
FLAG -240 272 2_V
FLAG 256 -32 0
FLAG 256 96 0
FLAG 256 224 0
FLAG 352 -112 1_v
FLAG 336 16 2_v
FLAG 352 144 3_v
SYMBOL PV_panel -192 112 R0
SYMATTR InstName X1
SYMBOL PV_panel -368 256 R0
SYMATTR InstName X2
SYMBOL PV_panel -32 272 R0
SYMATTR InstName X4
SYMBOL PV_panel -32 112 R0
SYMATTR InstName X5
SYMBOL PV_panel -192 416 R0
SYMATTR InstName X6
SYMBOL PV_panel -32 416 R0
SYMATTR InstName X8
SYMBOL PV_panel -368 416 R0
SYMATTR InstName X10
SYMBOL PV_panel -192 272 R0
SYMATTR InstName X11
SYMBOL PV_panel -368 112 R0
SYMATTR InstName X12
SYMBOL voltage 928 -64 R0
SYMATTR InstName V1
SYMATTR Value 0
SYMBOL voltage 736 -160 R270
WINDOW 0 32 56 VTop 2
WINDOW 3 -32 56 VBottom 2
SYMATTR InstName V2
SYMATTR Value 0
SYMBOL res 1024 -16 R0
SYMATTR InstName RLOAD1
SYMATTR Value 10k
SYMBOL voltage 256 -128 R0
SYMATTR InstName V3
SYMATTR Value 1.6
SYMBOL voltage 256 0 R0
SYMATTR InstName V4
SYMATTR Value 3.1
SYMBOL voltage 256 128 R0
SYMATTR InstName V5
SYMATTR Value 5.1
TEXT 712 200 Left 2 !.dc V1 0 200 1
