Version 4
SHEET 1 1544 680
WIRE -608 -352 -704 -352
WIRE -624 -224 -704 -224
WIRE -608 -96 -704 -96
WIRE 1312 -64 1216 -64
WIRE 1136 -32 1136 -48
WIRE 1216 -32 1216 -64
WIRE 1312 48 1312 -64
WIRE 1424 48 1312 48
WIRE 1312 80 1312 48
WIRE 560 96 560 -32
WIRE 736 96 736 -32
WIRE 896 96 896 -32
WIRE 1424 128 1424 48
WIRE 1312 208 1312 160
WIRE 1424 208 1312 208
WIRE 560 256 560 128
WIRE 736 256 736 128
WIRE 896 256 896 128
WIRE 560 416 560 288
WIRE 736 416 736 288
WIRE 896 416 896 288
FLAG -704 -272 0
FLAG -704 -144 0
FLAG -704 -16 0
FLAG -608 -352 1_v
FLAG -624 -224 2_v
FLAG -608 -96 3_v
FLAG 896 448 0
FLAG 736 448 0
FLAG 560 448 0
FLAG 464 -48 3_v
FLAG 464 -16 3_v
FLAG 640 112 3_v
FLAG 640 144 3_v
FLAG 800 112 3_v
FLAG 640 -80 1_v
FLAG 640 -48 1_v
FLAG 640 -16 1_v
FLAG 464 240 1_v
FLAG 464 464 1_v
FLAG 640 464 1_v
FLAG 464 80 2_v
FLAG 464 112 2_v
FLAG 464 272 2_v
FLAG 464 432 2_v
FLAG 800 400 2_v
FLAG 800 144 2_v
FLAG 464 304 0
FLAG 464 144 0
FLAG 464 -80 0
FLAG 800 -80 0
FLAG 800 -48 0
FLAG 800 -16 0
FLAG 800 80 0
FLAG 800 240 0
FLAG 800 272 0
FLAG 800 304 0
FLAG 800 432 0
FLAG 800 464 0
FLAG 640 432 0
FLAG 640 400 0
FLAG 640 304 0
FLAG 640 272 0
FLAG 640 240 0
FLAG 896 -64 p
FLAG 736 -64 p
FLAG 560 -64 p
FLAG 464 400 0
FLAG 640 80 1_V
FLAG 1312 208 0
FLAG 1136 -48 p
SYMBOL voltage -704 -368 R0
SYMATTR InstName V1
SYMATTR Value 1.6
SYMBOL voltage -704 -240 R0
SYMATTR InstName V2
SYMATTR Value 3.1
SYMBOL voltage -704 -112 R0
SYMATTR InstName V3
SYMATTR Value 5.1
SYMBOL PV_panel 512 -48 R0
SYMATTR InstName X3
SYMBOL PV_panel 512 112 R0
SYMATTR InstName X4
SYMBOL PV_panel 512 272 R0
SYMATTR InstName X5
SYMBOL PV_panel 512 432 R0
SYMATTR InstName X6
SYMBOL PV_panel 688 -48 R0
SYMATTR InstName X7
SYMBOL PV_panel 688 112 R0
SYMATTR InstName X8
SYMBOL PV_panel 688 272 R0
SYMATTR InstName X9
SYMBOL PV_panel 688 432 R0
SYMATTR InstName X10
SYMBOL PV_panel 848 -48 R0
SYMATTR InstName X11
SYMBOL PV_panel 848 112 R0
SYMATTR InstName X12
SYMBOL PV_panel 848 272 R0
SYMATTR InstName X13
SYMBOL PV_panel 848 432 R0
SYMATTR InstName X14
SYMBOL voltage 1312 64 R0
SYMATTR InstName V4
SYMATTR Value 0
SYMBOL voltage 1120 -32 R270
WINDOW 0 32 56 VTop 2
WINDOW 3 -32 56 VBottom 2
SYMATTR InstName V5
SYMATTR Value 0
SYMBOL res 1408 112 R0
SYMATTR InstName RLOAD1
SYMATTR Value 10k
TEXT 1096 328 Left 2 !.dc V4 0 200 1
