Version 4
SHEET 1 880 680
WIRE 352 96 288 96
WIRE 288 112 288 96
WIRE 288 176 288 144
WIRE 352 176 352 160
WIRE 352 176 288 176
WIRE 352 208 352 176
WIRE 288 224 288 176
WIRE 288 288 288 256
WIRE 352 288 352 272
WIRE 352 288 288 288
WIRE 352 320 352 288
WIRE 288 336 288 288
WIRE 288 384 288 368
WIRE 352 384 288 384
FLAG 128 128 M_1
IOPIN 128 128 In
FLAG 128 240 M_2
IOPIN 128 240 In
FLAG 128 352 M_3
IOPIN 128 352 In
FLAG 352 96 +
IOPIN 352 96 Out
FLAG 352 384 -
IOPIN 352 384 Out
SYMBOL module 208 128 R0
SYMATTR InstName X1
SYMBOL module 208 240 R0
SYMATTR InstName X2
SYMBOL module 208 352 R0
SYMATTR InstName X3
SYMBOL diode 336 160 M180
WINDOW 0 42 42 Left 2
WINDOW 3 43 26 Left 2
SYMATTR InstName D1
SYMATTR Value diodebp
SYMBOL diode 336 272 M180
WINDOW 0 24 64 Left 2
WINDOW 3 41 31 Left 2
SYMATTR InstName D2
SYMATTR Value diodebp
SYMBOL diode 336 384 M180
WINDOW 0 24 64 Left 2
WINDOW 3 41 32 Left 2
SYMATTR InstName D3
SYMATTR Value diodebp
TEXT -192 120 Left 2 !.MODEL diodebp D
